! Program Version,EnergyPlus, Version 22.2.0-aa78da9668, YMD=2024.05.13 19:57,
! Output:Meter Objects (applicable to this run)
Output:Meter,EnergyTransfer:Facility,hourly; !- [J]
Output:Meter:Cumulative,EnergyTransfer:Facility,hourly; !- [J]
Output:Meter,EnergyTransfer:Building,hourly; !- [J]
Output:Meter:Cumulative,EnergyTransfer:Building,hourly; !- [J]
Output:Meter,EnergyTransfer:Zone:CLASSROOM_9D637254,hourly; !- [J]
Output:Meter:Cumulative,EnergyTransfer:Zone:CLASSROOM_9D637254,hourly; !- [J]
Output:Meter,Heating:EnergyTransfer,hourly; !- [J]
Output:Meter:Cumulative,Heating:EnergyTransfer,hourly; !- [J]
Output:Meter,Heating:EnergyTransfer:Zone:CLASSROOM_9D637254,hourly; !- [J]
Output:Meter:Cumulative,Heating:EnergyTransfer:Zone:CLASSROOM_9D637254,hourly; !- [J]
Output:Meter,General:Heating:EnergyTransfer,hourly; !- [J]
Output:Meter:Cumulative,General:Heating:EnergyTransfer,hourly; !- [J]
Output:Meter,General:Heating:EnergyTransfer:Zone:CLASSROOM_9D637254,hourly; !- [J]
Output:Meter:Cumulative,General:Heating:EnergyTransfer:Zone:CLASSROOM_9D637254,hourly; !- [J]
Output:Meter,Cooling:EnergyTransfer,hourly; !- [J]
Output:Meter:Cumulative,Cooling:EnergyTransfer,hourly; !- [J]
Output:Meter,Cooling:EnergyTransfer:Zone:CLASSROOM_9D637254,hourly; !- [J]
Output:Meter:Cumulative,Cooling:EnergyTransfer:Zone:CLASSROOM_9D637254,hourly; !- [J]
Output:Meter,General:Cooling:EnergyTransfer,hourly; !- [J]
Output:Meter:Cumulative,General:Cooling:EnergyTransfer,hourly; !- [J]
Output:Meter,General:Cooling:EnergyTransfer:Zone:CLASSROOM_9D637254,hourly; !- [J]
Output:Meter:Cumulative,General:Cooling:EnergyTransfer:Zone:CLASSROOM_9D637254,hourly; !- [J]
Output:Meter,DistrictHeating:Facility,hourly; !- [J]
Output:Meter:Cumulative,DistrictHeating:Facility,hourly; !- [J]
Output:Meter,DistrictHeating:HVAC,hourly; !- [J]
Output:Meter:Cumulative,DistrictHeating:HVAC,hourly; !- [J]
Output:Meter,Heating:DistrictHeating,hourly; !- [J]
Output:Meter:Cumulative,Heating:DistrictHeating,hourly; !- [J]
Output:Meter,General:Heating:DistrictHeating,hourly; !- [J]
Output:Meter:Cumulative,General:Heating:DistrictHeating,hourly; !- [J]
Output:Meter,DistrictCooling:Facility,hourly; !- [J]
Output:Meter:Cumulative,DistrictCooling:Facility,hourly; !- [J]
Output:Meter,DistrictCooling:HVAC,hourly; !- [J]
Output:Meter:Cumulative,DistrictCooling:HVAC,hourly; !- [J]
Output:Meter,Cooling:DistrictCooling,hourly; !- [J]
Output:Meter:Cumulative,Cooling:DistrictCooling,hourly; !- [J]
Output:Meter,General:Cooling:DistrictCooling,hourly; !- [J]
Output:Meter:Cumulative,General:Cooling:DistrictCooling,hourly; !- [J]
Output:Meter,Carbon Equivalent:Facility,hourly; !- [kg]
Output:Meter:Cumulative,Carbon Equivalent:Facility,hourly; !- [kg]
Output:Meter,CarbonEquivalentEmissions:Carbon Equivalent,hourly; !- [kg]
Output:Meter:Cumulative,CarbonEquivalentEmissions:Carbon Equivalent,hourly; !- [kg]
